32

O	9.6897	2.2882	10.7403
O	9.8617	3.2791	11.6493
O	5.9967	5.0718	0.4545
O	-2.3582	6.0628	44.3246
O	-1.9597	3.2791	11.6493
O	21.5111	2.2882	10.7403
O	1.7332	0.4955	21.9350
O	1.9052	10.6391	22.8440
O	5.5982	2.2882	33.1298
O	5.7702	3.2791	34.0388
O	1.9052	5.0718	22.8440
O	1.7332	6.0628	21.9350
O	-6.0512	3.2791	34.0388
O	17.4196	2.2882	33.1298
O	-2.3582	0.4955	44.3246
O	5.9967	10.6391	0.4545
O	9.6897	7.8555	10.7403
O	9.8617	8.8464	11.6493
O	-1.9597	8.8464	11.6493
O	21.5111	7.8555	10.7403
O	5.5982	7.8555	33.1298
O	5.7702	8.8464	34.0388
O	-6.0512	8.8464	34.0388
O	17.4196	7.8555	33.1298
O	17.8181	5.0718	0.4545
O	9.4632	6.0628	44.3246
O	13.5546	0.4955	21.9350
O	13.7266	10.6391	22.8440
O	13.7266	5.0718	22.8440
O	13.5546	6.0628	21.9350
O	9.4632	0.4955	44.3246
O	17.8181	10.6391	0.4545
